/*--------------------------------*- C++ -*----------------------------------*\
| =========                 |                                                 |
| \\      /  F ield         | OpenFOAM: The Open Source CFD Toolbox           |
|  \\    /   O peration     | Version:  v2212                                 |
|   \\  /    A nd           | Website:  www.openfoam.com                      |
|    \\/     M anipulation  |                                                 |
\*---------------------------------------------------------------------------*/
FoamFile
{
    version     2.0;
    format      ascii;
    class       vectorField;
    object      kinematicCloudPositions;
}
// * * * * * * * * * * * * * * * * * * * * * * * * * * * * * * * * * * * * * //

(
(0.01 0.299 0.0032)
(0.01 0.305 0.0032)
(0.01 0.311 0.0032)
(0.01 0.317 0.0032)
(0.01 0.323 0.0032)
(0.178 0.161 0.0032)
(0.178 0.167 0.0032)
(0.178 0.173 0.0032)
(0.178 0.179 0.0032)
(0.178 0.185 0.0032)
(0.178 0.191 0.0032)
(0.178 0.197 0.0032)
(0.178 0.203 0.0032)
(0.178 0.209 0.0032)
(0.178 0.215 0.0032)
(0.178 0.221 0.0032)
(0.178 0.227 0.0032)
(0.178 0.233 0.0032)
(0.178 0.239 0.0032)
(0.178 0.245 0.0032)
(0.178 0.251 0.0032)
(0.178 0.257 0.0032)
(0.178 0.263 0.0032)
(0.178 0.269 0.0032)
(0.178 0.275 0.0032)
(0.178 0.281 0.0032)
(0.178 0.287 0.0032)
(0.178 0.293 0.0032)
(0.178 0.299 0.0032)
(0.178 0.305 0.0032)
(0.178 0.311 0.0032)
(0.178 0.317 0.0032)
(0.178 0.323 0.0032)
(0.178 0.329 0.0032)
(0.178 0.335 0.0032)
(0.178 0.341 0.0032)
(0.178 0.347 0.0032)
(0.178 0.353 0.0032)
(0.178 0.359 0.0032)
(0.178 0.365 0.0032)
(0.178 0.371 0.0032)
(0.178 0.377 0.0032)
(0.178 0.383 0.0032)
(0.178 0.389 0.0032)
(0.178 0.395 0.0032)
(0.178 0.401 0.0032)
(0.178 0.407 0.0032)
(0.178 0.413 0.0032)
(0.178 0.419 0.0032)
(0.178 0.425 0.0032)
(0.178 0.431 0.0032)
(0.178 0.437 0.0032)
(0.178 0.443 0.0032)
(0.178 0.449 0.0032)
(0.178 0.455 0.0032)
(0.178 0.461 0.0032)
(0.178 0.467 0.0032)
(0.178 0.473 0.0032)
(0.178 0.479 0.0032)
(0.178 0.485 0.0032)
(0.178 0.491 0.0032)
(0.178 0.497 0.0032)
(0.184 0.077 0.0032)
(0.184 0.083 0.0032)
(0.184 0.089 0.0032)
(0.184 0.095 0.0032)
(0.184 0.101 0.0032)
(0.184 0.107 0.0032)
(0.184 0.113 0.0032)
(0.184 0.119 0.0032)
(0.184 0.125 0.0032)
(0.184 0.131 0.0032)
(0.184 0.137 0.0032)
(0.184 0.143 0.0032)
(0.184 0.149 0.0032)
(0.184 0.155 0.0032)
(0.184 0.161 0.0032)
(0.184 0.167 0.0032)
(0.184 0.173 0.0032)
(0.184 0.179 0.0032)
(0.184 0.185 0.0032)
(0.184 0.191 0.0032)
(0.184 0.197 0.0032)
(0.184 0.203 0.0032)
(0.184 0.209 0.0032)
(0.184 0.215 0.0032)
(0.184 0.221 0.0032)
(0.184 0.227 0.0032)
(0.184 0.233 0.0032)
(0.184 0.239 0.0032)
(0.184 0.245 0.0032)
(0.184 0.251 0.0032)
(0.184 0.257 0.0032)
(0.184 0.263 0.0032)
(0.184 0.269 0.0032)
(0.184 0.275 0.0032)
(0.184 0.281 0.0032)
(0.184 0.287 0.0032)
(0.184 0.293 0.0032)
(0.184 0.299 0.0032)
(0.184 0.305 0.0032)
(0.184 0.311 0.0032)
(0.184 0.317 0.0032)
(0.184 0.323 0.0032)
(0.184 0.329 0.0032)
(0.184 0.335 0.0032)
(0.184 0.341 0.0032)
(0.184 0.347 0.0032)
(0.184 0.353 0.0032)
(0.184 0.359 0.0032)
(0.184 0.365 0.0032)
(0.184 0.371 0.0032)
(0.184 0.377 0.0032)
(0.184 0.383 0.0032)
(0.184 0.389 0.0032)
(0.184 0.395 0.0032)
(0.184 0.401 0.0032)
(0.184 0.407 0.0032)
(0.184 0.413 0.0032)
(0.184 0.419 0.0032)
(0.184 0.425 0.0032)
(0.184 0.431 0.0032)
(0.184 0.437 0.0032)
(0.184 0.443 0.0032)
(0.184 0.449 0.0032)
(0.184 0.455 0.0032)
(0.184 0.461 0.0032)
(0.184 0.467 0.0032)
(0.184 0.473 0.0032)
(0.184 0.479 0.0032)
(0.184 0.485 0.0032)
(0.184 0.491 0.0032)
(0.184 0.497 0.0032)
(0.19 0.077 0.0032)
(0.19 0.083 0.0032)
(0.19 0.089 0.0032)
(0.19 0.095 0.0032)
(0.19 0.101 0.0032)
(0.19 0.107 0.0032)
(0.19 0.113 0.0032)
(0.19 0.119 0.0032)
(0.19 0.125 0.0032)
(0.19 0.131 0.0032)
(0.19 0.137 0.0032)
(0.19 0.143 0.0032)
(0.19 0.149 0.0032)
(0.19 0.155 0.0032)
(0.19 0.161 0.0032)
(0.19 0.167 0.0032)
(0.19 0.173 0.0032)
(0.19 0.179 0.0032)
(0.19 0.185 0.0032)
(0.19 0.191 0.0032)
(0.19 0.197 0.0032)
(0.19 0.203 0.0032)
(0.19 0.209 0.0032)
(0.19 0.215 0.0032)
(0.19 0.221 0.0032)
(0.19 0.227 0.0032)
(0.19 0.233 0.0032)
(0.19 0.239 0.0032)
(0.19 0.245 0.0032)
(0.19 0.251 0.0032)
(0.19 0.257 0.0032)
(0.19 0.263 0.0032)
(0.19 0.269 0.0032)
(0.19 0.275 0.0032)
(0.19 0.281 0.0032)
(0.19 0.287 0.0032)
(0.19 0.293 0.0032)
(0.19 0.299 0.0032)
(0.19 0.305 0.0032)
(0.19 0.311 0.0032)
(0.19 0.317 0.0032)
(0.19 0.323 0.0032)
(0.19 0.329 0.0032)
(0.19 0.335 0.0032)
(0.19 0.341 0.0032)
(0.19 0.347 0.0032)
(0.19 0.353 0.0032)
(0.19 0.359 0.0032)
(0.19 0.365 0.0032)
(0.19 0.371 0.0032)
(0.19 0.377 0.0032)
(0.19 0.383 0.0032)
(0.19 0.389 0.0032)
(0.19 0.395 0.0032)
(0.19 0.401 0.0032)
(0.19 0.407 0.0032)
(0.19 0.413 0.0032)
(0.19 0.419 0.0032)
(0.19 0.425 0.0032)
(0.19 0.431 0.0032)
(0.19 0.437 0.0032)
(0.19 0.443 0.0032)
(0.19 0.449 0.0032)
(0.19 0.455 0.0032)
(0.19 0.461 0.0032)
(0.19 0.467 0.0032)
(0.19 0.473 0.0032)
(0.19 0.479 0.0032)
(0.19 0.485 0.0032)
(0.19 0.491 0.0032)
(0.19 0.497 0.0032)
(0.196 0.077 0.0032)
(0.196 0.083 0.0032)
(0.196 0.089 0.0032)
(0.196 0.095 0.0032)
(0.196 0.101 0.0032)
(0.196 0.107 0.0032)
(0.196 0.113 0.0032)
(0.196 0.119 0.0032)
(0.196 0.125 0.0032)
(0.196 0.131 0.0032)
(0.196 0.137 0.0032)
(0.196 0.143 0.0032)
(0.196 0.149 0.0032)
(0.196 0.155 0.0032)
(0.196 0.161 0.0032)
(0.196 0.167 0.0032)
(0.196 0.173 0.0032)
(0.196 0.179 0.0032)
(0.196 0.185 0.0032)
(0.196 0.191 0.0032)
(0.196 0.197 0.0032)
(0.196 0.203 0.0032)
(0.196 0.209 0.0032)
(0.196 0.215 0.0032)
(0.196 0.221 0.0032)
(0.196 0.227 0.0032)
(0.196 0.233 0.0032)
(0.196 0.239 0.0032)
(0.196 0.245 0.0032)
(0.196 0.251 0.0032)
(0.196 0.257 0.0032)
(0.196 0.263 0.0032)
(0.196 0.269 0.0032)
(0.196 0.275 0.0032)
(0.196 0.281 0.0032)
(0.196 0.287 0.0032)
(0.196 0.293 0.0032)
(0.196 0.299 0.0032)
(0.196 0.305 0.0032)
(0.196 0.311 0.0032)
(0.196 0.317 0.0032)
(0.196 0.323 0.0032)
(0.196 0.329 0.0032)
(0.196 0.335 0.0032)
(0.196 0.341 0.0032)
(0.196 0.347 0.0032)
(0.196 0.353 0.0032)
(0.196 0.359 0.0032)
(0.196 0.365 0.0032)
(0.196 0.371 0.0032)
(0.196 0.377 0.0032)
(0.196 0.383 0.0032)
(0.196 0.389 0.0032)
(0.196 0.395 0.0032)
(0.196 0.401 0.0032)
(0.196 0.407 0.0032)
(0.196 0.413 0.0032)
(0.196 0.419 0.0032)
(0.196 0.425 0.0032)
(0.196 0.431 0.0032)
(0.196 0.437 0.0032)
(0.196 0.443 0.0032)
(0.196 0.449 0.0032)
(0.196 0.455 0.0032)
(0.196 0.461 0.0032)
(0.196 0.467 0.0032)
(0.196 0.473 0.0032)
(0.196 0.479 0.0032)
(0.196 0.485 0.0032)
(0.196 0.491 0.0032)
(0.196 0.497 0.0032)
(0.202 0.077 0.0032)
(0.202 0.083 0.0032)
(0.202 0.089 0.0032)
(0.202 0.095 0.0032)
(0.202 0.101 0.0032)
(0.202 0.107 0.0032)
(0.202 0.113 0.0032)
(0.202 0.119 0.0032)
(0.202 0.125 0.0032)
(0.202 0.131 0.0032)
(0.202 0.137 0.0032)
(0.202 0.143 0.0032)
(0.202 0.149 0.0032)
(0.202 0.155 0.0032)
(0.202 0.161 0.0032)
(0.202 0.167 0.0032)
(0.202 0.173 0.0032)
(0.202 0.179 0.0032)
(0.202 0.185 0.0032)
(0.202 0.191 0.0032)
(0.202 0.197 0.0032)
(0.202 0.203 0.0032)
(0.202 0.209 0.0032)
(0.202 0.215 0.0032)
(0.202 0.221 0.0032)
(0.202 0.227 0.0032)
(0.202 0.233 0.0032)
(0.202 0.239 0.0032)
(0.202 0.245 0.0032)
(0.202 0.251 0.0032)
(0.202 0.257 0.0032)
(0.202 0.263 0.0032)
(0.202 0.269 0.0032)
(0.202 0.275 0.0032)
(0.202 0.281 0.0032)
(0.202 0.287 0.0032)
(0.202 0.293 0.0032)
(0.202 0.299 0.0032)
(0.202 0.305 0.0032)
(0.202 0.311 0.0032)
(0.202 0.317 0.0032)
(0.202 0.323 0.0032)
(0.202 0.329 0.0032)
(0.202 0.335 0.0032)
(0.202 0.341 0.0032)
(0.202 0.347 0.0032)
(0.202 0.353 0.0032)
(0.202 0.359 0.0032)
(0.202 0.365 0.0032)
(0.202 0.371 0.0032)
(0.202 0.377 0.0032)
(0.202 0.383 0.0032)
(0.202 0.389 0.0032)
(0.202 0.395 0.0032)
(0.202 0.401 0.0032)
(0.202 0.407 0.0032)
(0.202 0.413 0.0032)
(0.202 0.419 0.0032)
(0.202 0.425 0.0032)
(0.202 0.431 0.0032)
(0.202 0.437 0.0032)
(0.202 0.443 0.0032)
(0.202 0.449 0.0032)
(0.202 0.455 0.0032)
(0.202 0.461 0.0032)
(0.202 0.467 0.0032)
(0.202 0.473 0.0032)
(0.202 0.479 0.0032)
(0.202 0.485 0.0032)
(0.202 0.491 0.0032)
(0.202 0.497 0.0032)
(0.208 0.077 0.0032)
(0.208 0.083 0.0032)
(0.208 0.089 0.0032)
(0.208 0.095 0.0032)
(0.208 0.101 0.0032)
(0.208 0.107 0.0032)
(0.208 0.113 0.0032)
(0.208 0.119 0.0032)
(0.208 0.125 0.0032)
(0.208 0.131 0.0032)
(0.208 0.137 0.0032)
(0.208 0.143 0.0032)
(0.208 0.149 0.0032)
(0.208 0.155 0.0032)
(0.208 0.161 0.0032)
(0.208 0.167 0.0032)
(0.208 0.173 0.0032)
(0.208 0.179 0.0032)
(0.208 0.185 0.0032)
(0.208 0.191 0.0032)
(0.208 0.197 0.0032)
(0.208 0.203 0.0032)
(0.208 0.209 0.0032)
(0.208 0.215 0.0032)
(0.208 0.221 0.0032)
(0.208 0.227 0.0032)
(0.208 0.233 0.0032)
(0.208 0.239 0.0032)
(0.208 0.245 0.0032)
(0.208 0.251 0.0032)
(0.208 0.257 0.0032)
(0.208 0.263 0.0032)
(0.208 0.269 0.0032)
(0.208 0.275 0.0032)
(0.208 0.281 0.0032)
(0.208 0.287 0.0032)
(0.208 0.293 0.0032)
(0.208 0.299 0.0032)
(0.208 0.305 0.0032)
(0.208 0.311 0.0032)
(0.208 0.317 0.0032)
(0.208 0.323 0.0032)
(0.208 0.329 0.0032)
(0.208 0.335 0.0032)
(0.208 0.341 0.0032)
(0.208 0.347 0.0032)
(0.208 0.353 0.0032)
(0.208 0.359 0.0032)
(0.208 0.365 0.0032)
(0.208 0.371 0.0032)
(0.208 0.377 0.0032)
(0.208 0.383 0.0032)
(0.208 0.389 0.0032)
(0.208 0.395 0.0032)
(0.208 0.401 0.0032)
(0.208 0.407 0.0032)
(0.208 0.413 0.0032)
(0.208 0.419 0.0032)
(0.208 0.425 0.0032)
(0.208 0.431 0.0032)
(0.208 0.437 0.0032)
(0.208 0.443 0.0032)
(0.208 0.449 0.0032)
(0.208 0.455 0.0032)
(0.208 0.461 0.0032)
(0.208 0.467 0.0032)
(0.208 0.473 0.0032)
(0.208 0.479 0.0032)
(0.208 0.485 0.0032)
(0.208 0.491 0.0032)
(0.208 0.497 0.0032)
(0.214 0.077 0.0032)
(0.214 0.083 0.0032)
(0.214 0.089 0.0032)
(0.214 0.095 0.0032)
(0.214 0.101 0.0032)
(0.214 0.107 0.0032)
(0.214 0.113 0.0032)
(0.214 0.119 0.0032)
(0.214 0.125 0.0032)
(0.214 0.131 0.0032)
(0.214 0.137 0.0032)
(0.214 0.143 0.0032)
(0.214 0.149 0.0032)
(0.214 0.155 0.0032)
(0.214 0.161 0.0032)
(0.214 0.167 0.0032)
(0.214 0.173 0.0032)
(0.214 0.179 0.0032)
(0.214 0.185 0.0032)
(0.214 0.191 0.0032)
(0.214 0.197 0.0032)
(0.214 0.203 0.0032)
(0.214 0.209 0.0032)
(0.214 0.215 0.0032)
(0.214 0.221 0.0032)
(0.214 0.227 0.0032)
(0.214 0.233 0.0032)
(0.214 0.239 0.0032)
(0.214 0.245 0.0032)
(0.214 0.251 0.0032)
(0.214 0.257 0.0032)
(0.214 0.263 0.0032)
(0.214 0.269 0.0032)
(0.214 0.275 0.0032)
(0.214 0.281 0.0032)
(0.214 0.287 0.0032)
(0.214 0.293 0.0032)
(0.214 0.299 0.0032)
(0.214 0.305 0.0032)
(0.214 0.311 0.0032)
(0.214 0.317 0.0032)
(0.214 0.323 0.0032)
(0.214 0.329 0.0032)
(0.214 0.335 0.0032)
(0.214 0.341 0.0032)
(0.214 0.347 0.0032)
(0.214 0.353 0.0032)
(0.214 0.359 0.0032)
(0.214 0.365 0.0032)
(0.214 0.371 0.0032)
(0.214 0.377 0.0032)
(0.214 0.383 0.0032)
(0.214 0.389 0.0032)
(0.214 0.395 0.0032)
(0.214 0.401 0.0032)
(0.214 0.407 0.0032)
(0.214 0.413 0.0032)
(0.214 0.419 0.0032)
(0.214 0.425 0.0032)
(0.214 0.431 0.0032)
(0.214 0.437 0.0032)
(0.214 0.443 0.0032)
(0.214 0.449 0.0032)
(0.214 0.455 0.0032)
(0.214 0.461 0.0032)
(0.214 0.467 0.0032)
(0.214 0.473 0.0032)
(0.214 0.479 0.0032)
(0.214 0.485 0.0032)
(0.214 0.491 0.0032)
(0.214 0.497 0.0032)
(0.22 0.077 0.0032)
(0.22 0.083 0.0032)
(0.22 0.089 0.0032)
(0.22 0.095 0.0032)
(0.22 0.101 0.0032)
(0.22 0.107 0.0032)
(0.22 0.113 0.0032)
(0.22 0.119 0.0032)
(0.22 0.125 0.0032)
(0.22 0.131 0.0032)
(0.22 0.137 0.0032)
(0.22 0.143 0.0032)
(0.22 0.149 0.0032)
(0.22 0.155 0.0032)
(0.22 0.161 0.0032)
(0.22 0.167 0.0032)
(0.22 0.173 0.0032)
(0.22 0.179 0.0032)
(0.22 0.185 0.0032)
(0.22 0.191 0.0032)
(0.22 0.197 0.0032)
(0.22 0.203 0.0032)
(0.22 0.209 0.0032)
(0.22 0.215 0.0032)
(0.22 0.221 0.0032)
(0.22 0.227 0.0032)
(0.22 0.233 0.0032)
(0.22 0.239 0.0032)
(0.22 0.245 0.0032)
(0.22 0.251 0.0032)
(0.22 0.257 0.0032)
(0.22 0.263 0.0032)
(0.22 0.269 0.0032)
(0.22 0.275 0.0032)
(0.22 0.281 0.0032)
(0.22 0.287 0.0032)
(0.22 0.293 0.0032)
(0.22 0.299 0.0032)
(0.22 0.305 0.0032)
(0.22 0.311 0.0032)
(0.22 0.317 0.0032)
(0.22 0.323 0.0032)
(0.22 0.329 0.0032)
(0.22 0.335 0.0032)
(0.22 0.341 0.0032)
(0.22 0.347 0.0032)
(0.22 0.353 0.0032)
(0.22 0.359 0.0032)
(0.22 0.365 0.0032)
(0.22 0.371 0.0032)
(0.22 0.377 0.0032)
(0.22 0.383 0.0032)
(0.22 0.389 0.0032)
(0.22 0.395 0.0032)
(0.22 0.401 0.0032)
(0.22 0.407 0.0032)
(0.22 0.413 0.0032)
(0.22 0.419 0.0032)
(0.22 0.425 0.0032)
(0.22 0.431 0.0032)
(0.22 0.437 0.0032)
(0.22 0.443 0.0032)
(0.22 0.449 0.0032)
(0.22 0.455 0.0032)
(0.22 0.461 0.0032)
(0.22 0.467 0.0032)
(0.22 0.473 0.0032)
(0.22 0.479 0.0032)
(0.22 0.485 0.0032)
(0.22 0.491 0.0032)
(0.22 0.497 0.0032)
(0.226 0.077 0.0032)
(0.226 0.083 0.0032)
(0.226 0.089 0.0032)
(0.226 0.095 0.0032)
(0.226 0.101 0.0032)
(0.226 0.107 0.0032)
(0.226 0.113 0.0032)
(0.226 0.119 0.0032)
(0.226 0.125 0.0032)
(0.226 0.131 0.0032)
(0.226 0.137 0.0032)
(0.226 0.143 0.0032)
(0.226 0.149 0.0032)
(0.226 0.155 0.0032)
(0.226 0.161 0.0032)
(0.226 0.167 0.0032)
(0.226 0.173 0.0032)
(0.226 0.179 0.0032)
(0.226 0.185 0.0032)
(0.226 0.191 0.0032)
(0.226 0.197 0.0032)
(0.226 0.203 0.0032)
(0.226 0.209 0.0032)
(0.226 0.215 0.0032)
(0.226 0.221 0.0032)
(0.226 0.227 0.0032)
(0.226 0.233 0.0032)
(0.226 0.239 0.0032)
(0.226 0.245 0.0032)
(0.226 0.251 0.0032)
(0.226 0.257 0.0032)
(0.226 0.263 0.0032)
(0.226 0.269 0.0032)
(0.226 0.275 0.0032)
(0.226 0.281 0.0032)
(0.226 0.287 0.0032)
(0.226 0.293 0.0032)

)

// ************************************************************************* //
